Version 4.1
SHEET 1 880 680
WIRE 192 128 -304 128
WIRE 528 144 448 144
WIRE 192 160 144 160
WIRE -640 192 -784 192
WIRE -224 192 -304 192
WIRE -160 192 -224 192
WIRE 144 192 144 160
WIRE -160 224 -256 224
WIRE 144 224 144 192
WIRE 144 224 96 224
WIRE -256 256 -256 224
WIRE -256 256 -304 256
WIRE -160 256 -208 256
WIRE -208 352 -208 256
WIRE -208 352 -304 352
FLAG -304 128 A[3:0]
IOPIN -304 128 In
FLAG 144 192 midb[3:0]
FLAG -304 256 B[3:0]
IOPIN -304 256 In
FLAG 528 144 Sum[3:0]
IOPIN 528 144 Out
FLAG -784 192 B[3:0]
IOPIN -784 192 In
FLAG -224 192 mida[3:0]
FLAG -304 352 Add0Sub1
IOPIN -304 352 In
SYMBOL Adder 320 144 R0
SYMATTR InstName X1
SYMBOL MUX4 -32 224 R0
SYMATTR InstName X2
SYMBOL TwozComp -480 192 R0
SYMATTR InstName X3
TEXT -384 288 Left 2 ;Add
TEXT -864 224 Left 2 ;Add
