Version 4.1.1
SHEET 1 1900 920
WIRE -640 176 -640 128
FLAG -640 256 0
FLAG -640 128 Clk
SYMBOL ALU 1216 512 R0
SYMATTR InstName X4
SYMBOL voltage -640 160 R0
WINDOW 123 0 0 Left 0
WINDOW 39 0 0 Left 0
SYMATTR InstName V1
SYMATTR Value PULSE(5 0 0 1n 1n 0.5m 1m)
TEXT -536 192 Left 2 !.tran 7m
TEXT -536 216 Left 2 !.inc ModelSp2025.txt
TEXT 504 136 Left 2 ;Op-codes:\nADD: 00\nSUB: 01\nSTORE: 10\nLOAD: 11
TEXT 776 48 Left 2 ;Formats:\nADD, SUB: Dest=A+B,  Dest=A-B\n      2-bits        | 2-bits          | 2-bits       | 2-bits\n      instr[7:6] | instr[5:4]    | instr[3:2] | instr[1:0]\n      op-code    | Destination | A              | B\nLOAD, STORE: Register put into or read from DataMem addr\n      2-bits       | 3-bits                       | 1-bit         | 2-bits\n      instr[7:6] | instr[5:3]               | instr[2]    | instr[1:0]\n      op-code    | DataMem Address | Not used   | Register
TEXT 712 672 Left 2 ;Program:\nLOAD R0 0    -->  11 000 X 00 --> 0xC0\nLOAD R1 1    -->  11 001 X 01 --> 0xC9\nLOAD R2 2    -->  11 010 X 10 --> 0xD2\nADD R3 R0 R1 -->  00 10 00 01 --> 0x21\nSUB R3 R3 R2 -->  01 11 11 10 --> 0x7E\nSTORE R3 1   -->  10 001 X 11 --> 0x8B
