Version 4.1
SHEET 1 980 680
WIRE -896 64 -912 64
WIRE 144 64 -896 64
WIRE 144 96 -448 96
WIRE 528 96 272 96
WIRE 640 96 528 96
WIRE 800 112 736 112
WIRE 864 112 800 112
WIRE -896 128 -896 64
WIRE 144 128 112 128
WIRE 640 128 592 128
WIRE -672 176 -752 176
WIRE -448 176 -448 96
WIRE -448 176 -512 176
WIRE -432 176 -448 176
WIRE -336 176 -352 176
WIRE -224 176 -256 176
WIRE -112 176 -144 176
WIRE 0 176 -32 176
WIRE 112 176 112 128
WIRE 112 176 80 176
WIRE 800 176 800 112
WIRE 800 176 528 176
WIRE 592 208 592 128
WIRE 800 208 592 208
WIRE 112 224 112 176
WIRE 112 240 112 224
WIRE 144 240 112 240
WIRE 528 240 528 176
WIRE 640 240 528 240
WIRE 800 256 800 208
WIRE 800 256 736 256
WIRE 864 256 800 256
WIRE -448 272 -448 176
WIRE 144 272 -448 272
WIRE 528 272 272 272
WIRE 640 272 528 272
WIRE -896 304 -896 208
WIRE -224 304 -896 304
WIRE 144 304 -224 304
FLAG -912 64 D
IOPIN -912 64 In
FLAG -752 176 CLK
IOPIN -752 176 In
FLAG 864 112 Q
IOPIN 864 112 Out
FLAG 864 256 Qbar
IOPIN 864 256 Out
FLAG -224 304 Dbar
FLAG 528 96 Amid
FLAG 528 272 Bmid
FLAG 112 224 CLKbar
SYMBOL NAND3 208 96 R0
SYMATTR InstName X1
SYMBOL NAND3 208 272 R0
SYMATTR InstName X2
SYMBOL INVERT -192 176 R0
SYMATTR InstName X7
SYMBOL INVERT -304 176 R0
SYMATTR InstName X8
SYMBOL INVERT -400 176 R0
SYMATTR InstName X9
SYMBOL NAND 688 112 R0
SYMATTR InstName X3
SYMBOL NAND 688 256 R0
SYMATTR InstName X4
SYMBOL INVERT -896 160 R90
SYMATTR InstName X10
SYMBOL INVERT -80 176 R0
SYMATTR InstName X5
SYMBOL INVERT 32 176 R0
SYMATTR InstName X6
SYMBOL Buffer -592 176 R0
SYMATTR InstName X11
TEXT -144 -112 Left 2 !.ic V(Amid)=5\n.ic V(Bmid)=5\n.ic V(Q)=0\n.ic V(Qbar)=5\n.ic V(CLKbar)=5\n.ic V(CLK)=0
