Version 4.1.1
SHEET 1 1928 680
WIRE 208 128 160 128
WIRE 272 128 208 128
WIRE 272 144 272 128
WIRE 208 160 160 160
WIRE 240 160 208 160
WIRE 368 176 320 176
WIRE 384 176 368 176
WIRE 208 192 160 192
WIRE 240 192 208 192
FLAG 368 176 Out
FLAG 208 128 Sel
FLAG 208 160 A
FLAG 208 192 B
SYMBOL MUX 304 160 R0
SYMATTR InstName X1
SYMBOL MUXinputs 112 160 M180
SYMATTR InstName X2
TEXT 64 256 Left 2 !.tran 16m
TEXT 64 280 Left 2 !.inc ModelSp2025.txt
