Version 4.1
SHEET 1 1704 740
WIRE -784 -96 -832 -96
WIRE -752 -96 -784 -96
WIRE -560 -96 -592 -96
WIRE -832 -64 -832 -96
WIRE 16 64 -80 64
WIRE 352 64 256 64
WIRE 16 96 -80 96
WIRE 352 96 256 96
WIRE 16 176 -80 176
WIRE 352 176 256 176
WIRE 16 208 -80 208
WIRE 352 208 256 208
WIRE -912 288 -992 288
WIRE -672 288 -752 288
WIRE 16 288 -80 288
WIRE 352 288 256 288
WIRE 16 320 -80 320
WIRE 352 320 256 320
WIRE -912 384 -1104 384
WIRE -672 384 -752 384
WIRE 16 400 -80 400
WIRE 352 400 256 400
WIRE -1104 416 -1104 384
WIRE 16 432 -80 432
WIRE 352 432 256 432
WIRE -912 480 -992 480
WIRE -672 480 -752 480
WIRE -912 576 -1072 576
WIRE -672 576 -752 576
WIRE -1072 640 -1072 576
FLAG -832 16 0
FLAG -560 -96 Clk
FLAG -80 64 Clk
FLAG -80 176 Clk
FLAG -80 288 Clk
FLAG -80 400 Clk
FLAG -992 288 0
FLAG -992 480 0
FLAG -1104 496 0
FLAG -80 96 D[3:0]
FLAG -80 208 D[3:0]
FLAG -80 320 D[3:0]
FLAG -80 432 D[3:0]
FLAG 352 64 D0[3:0]
FLAG 352 96 Db0[3:0]
FLAG 352 176 D1[3:0]
FLAG 352 208 Db1[3:0]
FLAG 352 288 D2[3:0]
FLAG 352 320 Db2[3:0]
FLAG 352 400 D3[3:0]
FLAG 352 432 Db3[3:0]
FLAG -672 288 D[3]
FLAG -672 384 D[2]
FLAG -672 480 D[1]
FLAG -672 576 D[0]
FLAG -1072 720 0
FLAG -784 -96 x
SYMBOL Register 128 80 R0
SYMATTR InstName X1
SYMBOL RegisterDM0 128 192 R0
SYMATTR InstName X2
SYMBOL RegisterDM1 128 304 R0
SYMATTR InstName X3
SYMBOL RegisterDM2 128 416 R0
SYMATTR InstName X4
SYMBOL voltage -832 -80 R0
WINDOW 123 0 0 Left 0
WINDOW 39 0 0 Left 0
SYMATTR InstName V1
SYMATTR Value PULSE(5 0 0.5m 1n 1n 0.5m 1m)
SYMBOL voltage -1104 400 R0
SYMATTR InstName V2
SYMATTR Value 5
SYMBOL Buffer2x -832 288 R0
SYMATTR InstName X5
SYMBOL Buffer2x -832 384 R0
SYMATTR InstName X6
SYMBOL Buffer2x -832 480 R0
SYMATTR InstName X7
SYMBOL Buffer2x -832 576 R0
SYMATTR InstName X8
SYMBOL Buffer2x -672 -96 R0
SYMATTR InstName X9
SYMBOL voltage -1072 624 R0
WINDOW 123 0 0 Left 0
WINDOW 39 0 0 Left 0
SYMATTR InstName V3
SYMATTR Value PULSE(0 5 0.25m 1n 1n 2.5m 5m)
TEXT -928 -128 Left 2 !.tran 8m uic
TEXT -160 512 Left 2 !.inc C:\\Users\\tsmil\\bzrestore_2022_07_01\\C\\Users\\tsmilkst\\tsmilkRestore\\C\\Users\\tsmilkst\\Cuesta\\ClassStuff\\CIS240\\Labs\\LogicLibrary\\ModelSp2025.txt
TEXT -552 -160 Left 2 !.ic V(Clk)=5V V(x)=5
