Version 4
SHEET 1 880 680
WIRE 16 128 -128 128
WIRE 256 128 176 128
WIRE 16 224 -128 224
WIRE 256 224 176 224
WIRE 16 320 -112 320
WIRE 272 320 176 320
WIRE 16 416 -112 416
WIRE 272 416 176 416
WIRE 960 432 832 432
WIRE 16 512 -112 512
WIRE 272 512 176 512
WIRE 16 608 -112 608
WIRE 272 608 176 608
WIRE 16 704 -112 704
WIRE 272 704 176 704
WIRE 16 800 -112 800
WIRE 272 800 176 800
FLAG 960 432 INSTR[7:0]
IOPIN 960 432 Out
FLAG 256 128 INSTR[7]
FLAG 256 224 INSTR[6]
FLAG 272 320 INSTR[5]
FLAG 272 416 INSTR[4]
FLAG 272 512 INSTR[3]
FLAG 272 608 INSTR[2]
FLAG 272 704 INSTR[1]
FLAG 272 800 INSTR[0]
FLAG -128 128 In7
IOPIN -128 128 In
FLAG -128 224 In6
IOPIN -128 224 In
FLAG -112 320 In5
IOPIN -112 320 In
FLAG -112 416 In4
IOPIN -112 416 In
FLAG -112 512 In3
IOPIN -112 512 In
FLAG -112 608 In2
IOPIN -112 608 In
FLAG -112 704 In1
IOPIN -112 704 In
FLAG -112 800 In0
IOPIN -112 800 In
SYMBOL Buffer 96 128 R0
SYMATTR InstName X1
SYMBOL Buffer 96 224 R0
SYMATTR InstName X2
SYMBOL Buffer 96 320 R0
SYMATTR InstName X3
SYMBOL Buffer 96 416 R0
SYMATTR InstName X4
SYMBOL Buffer 96 512 R0
SYMATTR InstName X5
SYMBOL Buffer 96 608 R0
SYMATTR InstName X6
SYMBOL Buffer 96 704 R0
SYMATTR InstName X7
SYMBOL Buffer 96 800 R0
SYMATTR InstName X8
