Version 4
SHEET 1 880 680
WIRE 144 144 96 144
WIRE 208 144 144 144
WIRE 416 144 352 144
WIRE 144 176 96 176
WIRE 208 176 144 176
WIRE 416 176 352 176
FLAG 144 144 CLK
FLAG 144 176 D
FLAG 416 144 Q
FLAG 416 176 Qbar
SYMBOL dff 272 160 R0
SYMATTR InstName X1
SYMBOL FFinputBlock2 48 160 R0
SYMATTR InstName X1
TEXT 8 240 Left 2 !.tran 8.5m
TEXT 8 264 Left 2 !.inc ModelSp2025.txt
