Version 4

.SUBCKT FullAdder A B Cin Sum Cout
* First half adder: A + B -> produces intermediate sum S and carry C1
XHA1 A B S C1 HalfAdder
* Second half adder: S + Cin -> produces final Sum and carry C2
XHA2 S Cin Sum C2 HalfAdder
* OR gate for carry out: Cout = C1 OR C2
XORG C1 C2 Cout ORGate
