Version 4
SHEET 1 880 680
WIRE 32 64 -64 64
WIRE 160 64 32 64
WIRE 352 80 272 80
WIRE 16 96 -64 96
WIRE 160 96 16 96
WIRE 32 176 32 64
WIRE 64 176 32 176
WIRE 160 176 144 176
WIRE 320 192 256 192
WIRE 16 208 16 96
WIRE 160 208 16 208
WIRE 320 224 320 192
WIRE 352 224 320 224
WIRE 512 240 448 240
WIRE 352 256 320 256
WIRE 32 288 32 176
WIRE 160 288 32 288
WIRE 320 304 320 256
WIRE 320 304 256 304
WIRE 16 320 16 208
WIRE 64 320 16 320
WIRE 160 320 144 320
FLAG -64 64 A
IOPIN -64 64 In
FLAG -64 96 B
IOPIN -64 96 In
FLAG 352 80 Carry
IOPIN 352 80 Out
FLAG 512 240 Sum
IOPIN 512 240 Out
SYMBOL ANDx 208 80 R0
SYMATTR InstName X1
SYMBOL INVERT 96 176 R0
SYMATTR InstName X5
SYMBOL INVERT 96 320 R0
SYMATTR InstName X6
SYMBOL NAND 208 192 R0
SYMATTR InstName X2
SYMBOL NAND 208 304 R0
SYMATTR InstName X3
SYMBOL NAND 400 240 R0
SYMATTR InstName X4
