Version 4
SHEET 1 880 680
WIRE -96 -208 -224 -208
WIRE -96 -128 -224 -128
WIRE -96 -48 -224 -48
WIRE 320 16 320 0
WIRE -64 48 -256 48
WIRE 192 48 80 48
WIRE 320 64 320 16
WIRE -64 80 -144 80
WIRE 192 80 192 48
WIRE 288 80 192 80
WIRE 448 96 368 96
WIRE 288 112 192 112
WIRE 576 128 576 112
WIRE -64 160 -256 160
WIRE 192 160 192 112
WIRE 192 160 80 160
WIRE 576 176 576 128
WIRE -64 192 -144 192
WIRE 448 192 448 96
WIRE 544 192 448 192
WIRE 688 208 624 208
WIRE 544 224 448 224
WIRE 320 240 320 224
WIRE -64 272 -256 272
WIRE 192 272 80 272
WIRE 320 288 320 240
WIRE -64 304 -144 304
WIRE 192 304 192 272
WIRE 288 304 192 304
WIRE 784 304 784 288
WIRE 448 320 448 224
WIRE 448 320 368 320
WIRE 288 336 192 336
WIRE 784 352 784 304
WIRE 688 368 688 208
WIRE 752 368 688 368
WIRE -64 384 -256 384
WIRE 192 384 192 336
WIRE 192 384 80 384
WIRE 944 384 832 384
WIRE 752 400 688 400
WIRE -64 416 -144 416
WIRE 320 464 320 448
WIRE -64 496 -256 496
WIRE 192 496 80 496
WIRE 320 512 320 464
WIRE -64 528 -144 528
WIRE 192 528 192 496
WIRE 288 528 192 528
WIRE 448 544 368 544
WIRE 288 560 192 560
WIRE 576 576 576 560
WIRE -64 608 -256 608
WIRE 192 608 192 560
WIRE 192 608 80 608
WIRE 576 624 576 576
WIRE -64 640 -144 640
WIRE 448 640 448 544
WIRE 544 640 448 640
WIRE 688 656 688 400
WIRE 688 656 624 656
WIRE 544 672 448 672
WIRE 320 688 320 672
WIRE -64 720 -256 720
WIRE 192 720 80 720
WIRE 320 736 320 688
WIRE -64 752 -144 752
WIRE 192 752 192 720
WIRE 288 752 192 752
WIRE 448 768 448 672
WIRE 448 768 368 768
WIRE 288 784 192 784
WIRE -64 832 -256 832
WIRE 192 832 192 784
WIRE 192 832 80 832
WIRE -64 864 -144 864
FLAG -144 80 D[0]
FLAG -256 48 CLK[0]
FLAG -144 192 D[1]
FLAG -144 304 D[2]
FLAG -144 416 D[3]
FLAG -144 528 D[4]
FLAG -144 640 D[5]
FLAG -144 752 D[6]
FLAG -144 864 D[7]
FLAG 320 16 Sel[0]
FLAG 320 240 Sel[0]
FLAG 320 464 Sel[0]
FLAG 320 688 Sel[0]
FLAG 576 128 Sel[1]
FLAG 576 576 Sel[1]
FLAG 784 304 Sel[2]
FLAG -224 -48 CLK[7:0]
IOPIN -224 -48 In
FLAG 944 384 Out
IOPIN 944 384 Out
FLAG -256 160 CLK[1]
FLAG -256 272 CLK[2]
FLAG -256 384 CLK[3]
FLAG -256 496 CLK[4]
FLAG -256 608 CLK[5]
FLAG -256 720 CLK[6]
FLAG -256 832 CLK[7]
FLAG -224 -128 D[7:0]
IOPIN -224 -128 In
FLAG -224 -208 Sel[2:0]
IOPIN -224 -208 In
SYMBOL dff 0 64 R0
SYMATTR InstName X1
SYMBOL dff 0 176 R0
SYMATTR InstName X1
SYMBOL dff 0 288 R0
SYMATTR InstName X1
SYMBOL dff 0 400 R0
SYMATTR InstName X1
SYMBOL dff 0 512 R0
SYMATTR InstName X1
SYMBOL dff 0 624 R0
SYMATTR InstName X1
SYMBOL dff 0 736 R0
SYMATTR InstName X1
SYMBOL dff 0 848 R0
SYMATTR InstName X1
SYMBOL MUX 352 80 R0
SYMATTR InstName X1
SYMBOL MUX 352 304 R0
SYMATTR InstName X1
SYMBOL MUX 352 528 R0
SYMATTR InstName X1
SYMBOL MUX 352 752 R0
SYMATTR InstName X1
SYMBOL MUX 608 192 R0
SYMATTR InstName X1
SYMBOL MUX 608 640 R0
SYMATTR InstName X1
SYMBOL MUX 816 368 R0
SYMATTR InstName X1
