Version 4
SHEET 1 880 680
WIRE 0 48 -80 48
WIRE 368 48 304 48
WIRE -80 80 -80 48
WIRE 368 80 304 80
WIRE 528 80 496 80
WIRE 720 80 608 80
WIRE 96 96 32 96
WIRE 368 112 304 112
WIRE 720 128 720 80
WIRE 848 128 720 128
WIRE 32 144 32 96
WIRE 1008 144 944 144
WIRE 848 160 752 160
WIRE 176 176 128 176
WIRE 448 192 320 192
WIRE 128 224 128 176
WIRE 336 224 320 224
WIRE 448 224 416 224
WIRE 608 224 576 224
WIRE 752 224 752 160
WIRE 752 224 688 224
WIRE 1008 240 1008 144
WIRE 1072 240 1008 240
WIRE 336 256 320 256
WIRE 448 256 416 256
WIRE 1200 256 1168 256
WIRE 1216 256 1200 256
WIRE 1072 272 1040 272
WIRE 384 320 368 320
WIRE 496 320 464 320
WIRE 496 352 368 352
WIRE 656 352 624 352
WIRE 848 352 736 352
WIRE 384 384 368 384
WIRE 496 384 464 384
WIRE 848 384 848 352
WIRE 912 384 848 384
WIRE 1040 400 1040 272
WIRE 1040 400 1008 400
WIRE 912 416 848 416
WIRE 416 448 400 448
WIRE 528 448 496 448
WIRE 416 480 400 480
WIRE 528 480 496 480
WIRE 688 480 656 480
WIRE 848 480 848 416
WIRE 848 480 768 480
WIRE 528 512 400 512
FLAG 128 304 0
FLAG 32 224 0
FLAG -80 160 0
FLAG 0 48 A
FLAG 96 96 B
FLAG 176 176 C
FLAG 304 48 A
FLAG 304 80 B
FLAG 304 112 C
FLAG 320 192 A
FLAG 320 224 B
FLAG 320 256 C
FLAG 368 320 A
FLAG 368 352 B
FLAG 368 384 C
FLAG 400 448 A
FLAG 400 480 B
FLAG 400 512 C
FLAG 1200 256 Out
SYMBOL voltage -80 64 R0
WINDOW 3 -128 125 Left 2
WINDOW 123 0 0 Left 0
WINDOW 39 0 0 Left 0
SYMATTR InstName X1
SYMATTR Value PULSE(0 5 0 1n 1n 2m 4m)
SYMBOL voltage 32 128 R0
WINDOW 3 -181 128 Left 2
WINDOW 123 0 0 Left 0
WINDOW 39 0 0 Left 0
SYMATTR InstName X1
SYMATTR Value PULSE(0 5 0 1n 1n 1m 2m)
SYMBOL voltage 128 208 R0
WINDOW 3 -129 124 Left 2
WINDOW 123 0 0 Left 0
WINDOW 39 0 0 Left 0
SYMATTR InstName X1
SYMATTR Value PULSE(0 5 0 1n 1n 0.5m 1m)
SYMBOL NAND3 432 80 R0
SYMATTR InstName X1
SYMBOL INVERT 560 80 R0
SYMATTR InstName X1
SYMBOL NAND3 512 224 R0
SYMATTR InstName X1
SYMBOL INVERT 640 224 R0
SYMATTR InstName X1
SYMBOL NAND3 560 352 R0
SYMATTR InstName X1
SYMBOL INVERT 688 352 R0
SYMATTR InstName X1
SYMBOL NAND3 592 480 R0
SYMATTR InstName X1
SYMBOL INVERT 720 480 R0
SYMATTR InstName X1
SYMBOL INVERT 368 224 R0
SYMATTR InstName X1
SYMBOL INVERT 368 256 R0
SYMATTR InstName X1
SYMBOL INVERT 416 320 R0
SYMATTR InstName X1
SYMBOL INVERT 416 384 R0
SYMATTR InstName X1
SYMBOL INVERT 448 448 R0
SYMATTR InstName X1
SYMBOL INVERT 448 480 R0
SYMATTR InstName X1
SYMBOL ORx 896 144 R0
SYMATTR InstName X1
SYMBOL ORx 960 400 R0
SYMATTR InstName X1
SYMBOL ORx 1120 256 R0
SYMATTR InstName X1
TEXT -144 16 Left 2 ;See if there are an odd number of 1s.
TEXT 72 -32 Left 2 !.lib C:\\Users\\tsmil\\bzrestore_2022_07_01\\C\\Users\\tsmilkst\\tsmilkRestore\\C\\Users\\tsmilkst\\Cuesta\\ClassStuff\\CIS240\\Labs\\LogicLibrary\\ModelSp2025.txt
TEXT -210 574 Left 2 !.tran 8m
