Version 4
SHEET 1 880 680
WIRE 512 -16 432 -16
WIRE 752 -16 672 -16
WIRE 512 80 432 80
WIRE 752 80 672 80
WIRE -48 96 -80 96
WIRE 112 96 48 96
WIRE 240 96 192 96
WIRE 112 160 48 160
WIRE 240 160 192 160
WIRE 512 176 432 176
WIRE 752 176 672 176
WIRE 112 224 48 224
WIRE 240 224 192 224
WIRE 512 272 352 272
WIRE 752 272 672 272
WIRE 112 288 48 288
WIRE 240 288 192 288
WIRE 352 288 352 272
WIRE 544 368 496 368
WIRE 864 384 800 384
WIRE 544 400 496 400
FLAG -80 96 A[3:0]
IOPIN -80 96 In
FLAG 48 96 A[3]
FLAG 48 160 A[2]
FLAG 48 224 A[1]
FLAG 48 288 A[0]
FLAG 496 368 Ab[3:0]
FLAG 240 96 Ab[3]
FLAG 240 160 Ab[2]
FLAG 240 224 Ab[1]
FLAG 240 288 Ab[0]
FLAG 432 176 0
FLAG 432 80 0
FLAG 432 -16 0
FLAG 352 368 0
FLAG 752 -16 One[3]
FLAG 752 80 One[2]
FLAG 752 176 One[1]
FLAG 752 272 One[0]
FLAG 496 400 One[3:0]
FLAG 864 384 TwozComp[3:0]
IOPIN 864 384 Out
SYMBOL INVERT 144 96 R0
SYMATTR InstName X1
SYMBOL INVERT 144 160 R0
SYMATTR InstName X2
SYMBOL INVERT 144 224 R0
SYMATTR InstName X3
SYMBOL INVERT 144 288 R0
SYMATTR InstName X4
SYMBOL ADDER 672 384 R0
SYMATTR InstName X5
SYMBOL BUFFER 592 -16 R0
SYMATTR InstName X6
SYMBOL BUFFER 592 80 R0
SYMATTR InstName X7
SYMBOL BUFFER 592 176 R0
SYMATTR InstName X8
SYMBOL BUFFER 592 272 R0
SYMATTR InstName X9
SYMBOL VOLTAGE 352 272 R0
SYMATTR InstName X1
SYMATTR Value 5
