Version 4.1
SHEET 1 880 680

WIRE 176 -48 144 -48
WIRE 336 -48 256 -48
WIRE 176 0 144 0
WIRE 336 0 256 0
WIRE 176 48 144 48

FLAG 144 -48 A[3:0]
IOPIN 144 -48 In
FLAG 144 0 B[3:0]
IOPIN 144 0 In
FLAG 144 48 AddSub
IOPIN 144 48 In
FLAG 336 -48 Sum[3:0]
IOPIN 336 -48 Out
FLAG 336 0 Cout
IOPIN 336 0 Out

SYMBOL four_bit_adder 216 0 R0
SYMATTR InstName X1
SYMATTR SpiceLine BITS=4

SYMBOL XOR 176 0 R0
SYMATTR InstName X2
SYMBOL XOR 176 48 R0
SYMATTR InstName X3
SYMBOL XOR 176 96 R0
SYMATTR InstName X4
SYMBOL XOR 176 144 R0
SYMATTR InstName X5

TEXT -24 296 Left 2 !.tran 1600n
TEXT -24 328 Left 2 !.model NMOS NMOS
TEXT -24 360 Left 2 !.model PMOS PMOS
TEXT -24 392 Left 2 !.include "full_adder.asc"
TEXT -24 424 Left 2 !.include "half_adder.asc" 