Version 4.1
SHEET 1 880 680
WIRE 176 48 176 32
WIRE 176 96 176 48
WIRE 144 112 -48 112
WIRE 272 128 224 128
WIRE 512 128 432 128
WIRE 144 144 -48 144
WIRE 176 192 176 176
WIRE -208 208 -256 208
WIRE 176 240 176 192
WIRE 144 256 -48 256
WIRE 272 272 224 272
WIRE 512 272 432 272
WIRE 144 288 -48 288
WIRE 176 336 176 320
WIRE 176 384 176 336
WIRE 144 400 -48 400
WIRE 272 416 224 416
WIRE 512 416 432 416
WIRE 144 432 -48 432
WIRE 176 480 176 464
WIRE 176 528 176 480
WIRE 144 544 -48 544
WIRE 272 560 224 560
WIRE 512 560 432 560
WIRE 144 576 -48 576
FLAG 176 48 Sel
FLAG -256 208 Sel
IOPIN -256 208 In
FLAG -48 112 A[0]
IOPIN -48 112 In
FLAG -48 144 B[0]
IOPIN -48 144 In
FLAG 512 128 Out[0]
IOPIN 512 128 Out
FLAG 176 192 Sel
FLAG -48 256 A[1]
IOPIN -48 256 In
FLAG -48 288 B[1]
IOPIN -48 288 In
FLAG 512 272 Out[1]
IOPIN 512 272 Out
FLAG 176 336 Sel
FLAG -48 400 A[2]
IOPIN -48 400 In
FLAG -48 432 B[2]
IOPIN -48 432 In
FLAG 512 416 Out[2]
IOPIN 512 416 Out
FLAG 176 480 Sel
FLAG -48 544 A[3]
IOPIN -48 544 In
FLAG -48 576 B[3]
IOPIN -48 576 In
FLAG 512 560 Out[3]
IOPIN 512 560 Out
SYMBOL MUX 208 112 R0
SYMATTR InstName X1
SYMBOL MUX 208 256 R0
SYMATTR InstName X2
SYMBOL MUX 208 400 R0
SYMATTR InstName X3
SYMBOL MUX 208 544 R0
SYMATTR InstName X4
SYMBOL Buffer 352 128 R0
SYMATTR InstName X5
SYMBOL Buffer 352 272 R0
SYMATTR InstName X6
SYMBOL Buffer 352 416 R0
SYMATTR InstName X7
SYMBOL Buffer 352 560 R0
SYMATTR InstName X8
