Version 4.1
SHEET 1 880 680
WIRE 48 -64 -16 -64
WIRE 288 -64 208 -64
WIRE 48 -32 -16 -32
WIRE 32 80 -16 80
WIRE 176 80 128 80
WIRE 336 80 288 80
WIRE -80 112 -80 64
WIRE -48 112 -48 64
WIRE -16 112 -16 80
WIRE 64 112 64 64
WIRE 96 112 96 64
WIRE 128 112 128 80
WIRE 224 112 224 64
WIRE 256 112 256 64
WIRE 288 112 288 80
WIRE 400 128 400 80
WIRE 432 128 432 80
WIRE 336 288 336 80
WIRE 400 288 400 256
WIRE 400 288 336 288
WIRE 32 320 32 80
WIRE 80 320 80 288
WIRE 80 320 32 320
WIRE 176 320 176 80
WIRE 240 320 240 288
WIRE 240 320 176 320
WIRE -32 352 -32 288
WIRE 112 352 112 288
WIRE 272 352 272 288
WIRE 432 352 432 256
FLAG -16 -32 B[3:0]
IOPIN -16 -32 In
FLAG -16 -64 A[3:0]
IOPIN -16 -64 In
FLAG 400 80 A[0]
FLAG 432 80 B[0]
FLAG 224 64 A[1]
FLAG 256 64 B[1]
FLAG 64 64 A[2]
FLAG 96 64 B[2]
FLAG -80 64 A[3]
FLAG -48 64 B[3]
FLAG 432 352 Sum[0]
FLAG 272 352 Sum[1]
FLAG 112 352 Sum[2]
FLAG -32 352 Sum[3]
FLAG 288 -64 Sum[3:0]
IOPIN 288 -64 Out
SYMBOL HalfAdder 416 192 M90
SYMATTR InstName X1
SYMBOL FullAdder 256 192 M90
SYMATTR InstName X2
SYMBOL FullAdder 96 192 M90
SYMATTR InstName X3
SYMBOL FullAdder -48 192 M90
SYMATTR InstName X4
