Version 4.1
SHEET 1 928 680
WIRE -192 -560 -304 -560
WIRE 176 -560 -192 -560
WIRE -144 -528 -304 -528
WIRE 176 -528 -144 -528
WIRE 368 -528 304 -528
WIRE -96 -496 -304 -496
WIRE 176 -496 -96 -496
WIRE 368 -480 368 -528
WIRE 432 -480 368 -480
WIRE 560 -464 528 -464
WIRE 432 -448 368 -448
WIRE -192 -416 -192 -560
WIRE 176 -416 -192 -416
WIRE -144 -384 -144 -528
WIRE 48 -384 -144 -384
WIRE 176 -384 128 -384
WIRE 368 -384 368 -448
WIRE 368 -384 304 -384
WIRE -96 -352 -96 -496
WIRE 48 -352 -96 -352
WIRE 176 -352 128 -352
WIRE 560 -352 560 -464
WIRE 640 -352 560 -352
WIRE 816 -336 736 -336
WIRE 640 -320 560 -320
WIRE -192 -272 -192 -416
WIRE 48 -272 -192 -272
WIRE 176 -272 128 -272
WIRE -144 -240 -144 -384
WIRE 176 -240 -144 -240
WIRE 368 -240 304 -240
WIRE -96 -208 -96 -352
WIRE 48 -208 -96 -208
WIRE 176 -208 128 -208
WIRE 368 -192 368 -240
WIRE 432 -192 368 -192
WIRE 560 -176 560 -320
WIRE 560 -176 528 -176
WIRE 432 -160 368 -160
WIRE -192 -128 -192 -272
WIRE 48 -128 -192 -128
WIRE 176 -128 128 -128
WIRE -144 -96 -144 -240
WIRE 48 -96 -144 -96
WIRE 176 -96 128 -96
WIRE 368 -96 368 -160
WIRE 368 -96 304 -96
WIRE -96 -64 -96 -208
WIRE 176 -64 -96 -64
WIRE -192 64 -192 -128
WIRE 176 64 -192 64
WIRE 304 80 272 80
WIRE -144 96 -144 -96
WIRE 176 96 -144 96
WIRE 304 144 304 80
WIRE 352 144 304 144
WIRE -192 160 -192 64
WIRE 176 160 -192 160
WIRE 352 176 272 176
WIRE 544 176 480 176
WIRE -96 192 -96 -64
WIRE 176 192 -96 192
WIRE 352 208 304 208
WIRE -144 256 -144 96
WIRE 176 256 -144 256
WIRE 304 272 304 208
WIRE 304 272 272 272
WIRE -96 288 -96 192
WIRE 176 288 -96 288
FLAG -304 -560 A
IOPIN -304 -560 In
FLAG -304 -528 B
IOPIN -304 -528 In
FLAG -304 -496 Cin
IOPIN -304 -496 In
FLAG 544 176 CarOut
IOPIN 544 176 Out
FLAG 816 -336 Sum
IOPIN 816 -336 Out
SYMBOL NAND 224 80 R0
SYMATTR InstName X1
SYMBOL NAND 224 176 R0
SYMATTR InstName X2
SYMBOL NAND 224 272 R0
SYMATTR InstName X3
SYMBOL NAND3 416 176 R0
SYMATTR InstName X4
SYMBOL NAND3 240 -96 R0
SYMATTR InstName X5
SYMBOL NAND3 240 -240 R0
SYMATTR InstName X6
SYMBOL NAND3 240 -384 R0
SYMATTR InstName X7
SYMBOL INVERT 80 -384 R0
SYMATTR InstName X9
SYMBOL INVERT 80 -352 R0
SYMATTR InstName X10
SYMBOL INVERT 80 -272 R0
SYMATTR InstName X11
SYMBOL INVERT 80 -208 R0
SYMATTR InstName X12
SYMBOL INVERT 80 -128 R0
SYMATTR InstName X13
SYMBOL INVERT 80 -96 R0
SYMATTR InstName X14
SYMBOL NAND3 240 -528 R0
SYMATTR InstName X15
SYMBOL NAND 480 -464 R0
SYMATTR InstName X8
SYMBOL NAND 480 -176 R0
SYMATTR InstName X16
SYMBOL ORx 688 -336 R0
SYMATTR InstName X17
