Version 4
SHEET 1 1280 680
WIRE 144 96 96 96
WIRE 304 96 224 96
WIRE 464 96 384 96
WIRE 624 96 544 96
WIRE 784 96 704 96
WIRE 144 128 96 128
WIRE 304 128 224 128
WIRE 464 128 384 128
WIRE 624 128 544 128
WIRE 784 128 704 128
WIRE 144 224 96 224
WIRE 304 224 224 224
WIRE 464 224 384 224
WIRE 624 224 544 224
WIRE 784 224 704 224
FLAG 96 96 CLK
IOPIN 96 96 In
FLAG 96 128 RST
IOPIN 96 128 In
FLAG 96 224 START
IOPIN 96 224 In
FLAG 784 96 NOTE[2:0]
IOPIN 784 96 Out
FLAG 784 128 STATE[2:0]
IOPIN 784 128 Out
FLAG 784 224 DONE
IOPIN 784 224 Out
SYMBOL Register 176 112 R0
SYMATTR InstName X1
SYMBOL Register 336 112 R0
SYMATTR InstName X2
SYMBOL Register 496 112 R0
SYMATTR InstName X3
SYMBOL MUX4 176 320 R0
SYMATTR InstName X4
SYMBOL MUX4 336 320 R0
SYMATTR InstName X5
SYMBOL MUX4 496 320 R0
SYMATTR InstName X6
SYMBOL ANDx 656 320 R0
SYMATTR InstName X7
SYMBOL ORx 656 112 R0
SYMATTR InstName X8
SYMBOL Buffer 816 112 R0
SYMATTR InstName X9
TEXT -168 -56 Left 2 ;FSM for Mary Had a Little Lamb
TEXT -168 -24 Left 2 ;Notes: 3=E, 2=D, 1=C, 0=Rest
TEXT -168 8 Left 2 ;State Sequence:
TEXT -168 40 Left 2 ;000(Rest) -> 001(E) -> 010(D) -> 011(C)
TEXT -168 72 Left 2 ;100(D) -> 101(E) -> 110(E) -> 111(Rest)