Version 4.1
SHEET 1 1244 956
WIRE -368 16 -432 16
WIRE -352 16 -368 16
WIRE -432 64 -432 16
WIRE 0 64 -64 64
WIRE 16 64 0 64
WIRE 192 80 128 80
WIRE 0 96 -64 96
WIRE 16 96 0 96
WIRE 0 176 -64 176
WIRE 16 176 0 176
WIRE 192 176 96 176
WIRE -368 208 -432 208
WIRE -352 208 -368 208
WIRE -432 256 -432 208
WIRE 0 256 -64 256
WIRE 16 256 0 256
WIRE 192 272 112 272
WIRE 0 288 -64 288
WIRE 16 288 0 288
WIRE 0 352 -64 352
WIRE 16 352 0 352
WIRE -368 384 -432 384
WIRE -352 384 -368 384
WIRE 0 384 -64 384
WIRE 16 384 0 384
WIRE 192 384 144 384
WIRE 0 416 -64 416
WIRE 16 416 0 416
WIRE -432 432 -432 384
WIRE 16 480 -48 480
WIRE 32 480 16 480
WIRE 192 496 128 496
WIRE 16 512 -48 512
WIRE 32 512 16 512
WIRE 16 592 -48 592
WIRE 32 592 16 592
WIRE 624 592 624 528
WIRE 16 608 -48 608
WIRE 32 608 16 608
WIRE 192 608 144 608
WIRE 624 608 624 592
WIRE -368 624 -432 624
WIRE -352 624 -368 624
WIRE 16 624 -48 624
WIRE 32 624 16 624
WIRE 576 624 512 624
WIRE 592 624 576 624
WIRE 752 640 672 640
WIRE 768 640 752 640
WIRE 576 656 512 656
WIRE 592 656 576 656
WIRE -432 672 -432 624
WIRE 16 704 -48 704
WIRE 32 704 16 704
WIRE 192 720 128 720
WIRE 16 736 -48 736
WIRE 32 736 16 736
WIRE -16 864 -80 864
WIRE 0 864 -16 864
WIRE 192 864 144 864
WIRE -16 896 -80 896
WIRE 0 896 -16 896
WIRE 192 896 144 896
FLAG -432 144 0
FLAG -432 336 0
FLAG -432 512 0
FLAG -368 16 A
FLAG -368 208 B
FLAG -368 384 C
FLAG 0 64 A
FLAG 0 176 A
FLAG 0 256 A
FLAG 0 352 A
FLAG 16 480 A
FLAG 16 592 A
FLAG 16 704 A
FLAG 0 96 B
FLAG 0 288 B
FLAG 0 384 B
FLAG 16 512 B
FLAG 16 608 B
FLAG 16 736 B
FLAG 0 416 C
FLAG 16 624 C
FLAG 192 80 ANDx
FLAG 192 176 INVERT
FLAG 192 272 NAND
FLAG 192 384 NAND3
FLAG 192 496 NOR
FLAG 192 608 NOR3
FLAG 192 720 ORx
FLAG 192 864 Q
FLAG 192 896 Qbar
FLAG -432 752 0
FLAG -368 624 Din
FLAG -16 896 Din
FLAG -16 864 A
FLAG 576 624 A
FLAG 576 656 B
FLAG 624 592 C
FLAG 752 640 MUX
SYMBOL ANDx 64 80 R0
SYMATTR InstName X1
SYMBOL NAND 64 272 R0
SYMATTR InstName X3
SYMBOL NAND3 80 384 R0
SYMATTR InstName X4
SYMBOL NOR 80 496 R0
SYMATTR InstName X5
SYMBOL NOR3 64 608 R0
SYMATTR InstName X6
SYMBOL ORx 80 720 R0
SYMATTR InstName X7
SYMBOL voltage -432 416 R0
WINDOW 123 0 0 Left 0
WINDOW 39 0 0 Left 0
SYMATTR InstName V3
SYMATTR Value PULSE(0 5 0 1n 1n 4m 8m)
SYMBOL voltage -432 240 R0
WINDOW 123 0 0 Left 0
WINDOW 39 0 0 Left 0
SYMATTR InstName V1
SYMATTR Value PULSE(0 5 0 1n 1n 2m 4m)
SYMBOL voltage -432 48 R0
WINDOW 123 0 0 Left 0
WINDOW 39 0 0 Left 0
SYMATTR InstName V2
SYMATTR Value PULSE(0 5 0 1n 1n 1m 2m)
SYMBOL INVERT 48 176 R0
SYMATTR InstName X2
SYMBOL dff 64 880 R0
SYMATTR InstName X8
SYMBOL voltage -432 656 R0
WINDOW 123 0 0 Left 0
WINDOW 39 0 0 Left 0
SYMATTR InstName V4
SYMATTR Value PULSE(0 5 0.2m 1n 1n 4m 8m)
SYMBOL MUX 656 624 R0
SYMATTR InstName X9
TEXT -224 64 Left 2 !.tran 8m
TEXT 336 144 Left 2 ;.MODEL Sp2025N NMOS (LEVEL=7  CGSO=3.4E-10 CGDO=3.4E-10 CJ=6.8e-4 \n+CJSW=1.26e-10 MJ=0.5 MJSW=0.5  \n+CGBO=5.75E-10 RSH=33.8 CJ=6.8e-4 MJ=0.5  CJSW=1.26e-10\n+MJSW=0.5)\n.MODEL Sp2025P PMOS (LEVEL=7  CGDO=5.3752E-11 CGSO=5.3752E-11\n+CGBO=3.3650E-10 CJ=4.8447E-04 MJ=0.5027 CJSW=1.6457E-10 \n+MJSW=0.217168 )
TEXT 336 432 Left 2 !.inc ./ModelSp2025.txt
