Version 4.1
SHEET 1 880 680
WIRE 96 96 32 96
WIRE 208 112 192 112
WIRE 320 112 288 112
WIRE 96 128 32 128
WIRE 448 128 416 128
WIRE 320 144 272 144
WIRE 272 160 272 144
WIRE 272 160 32 160
FLAG 32 96 A
IOPIN 32 96 In
FLAG 32 128 B
IOPIN 32 128 In
FLAG 32 160 C
IOPIN 32 160 In
FLAG 448 128 NOR3
IOPIN 448 128 Out
SYMBOL NOR 144 112 R0
SYMATTR InstName X1
SYMBOL NOR 368 128 R0
SYMATTR InstName X2
SYMBOL INVERT 240 112 R0
SYMATTR InstName X3
